test/data/swing_and_load_stamp/result.csv
# result.csv run at 2000-01-01 03:00:00 EST on 3 powerflow objects (not all are nodes)
node_name,voltA_real,voltA_imag,voltB_real,voltB_imag,voltC_real,voltC_imag
node1,2400.000000,0.000000,-1200.000000,-2078.460969,-1200.000000,2078.460969
load1,135693854574979916511997248057056142015550763280047535983739356259273198796800.000000,-20568806966515076668735268946734786158912973880015857398054912.000000,-67846927287489932544989915884683662336381904181422127636621777604951234576384.000000,-117514325199363882806025944548041112022828437615212711295251736628652566118400.000000,-67846927287489932544989915884683662336381904181422127636621777604951234576384.000000,117514325199363882806025944548041112022828437615212711295251736628652566118400.000000
